// Generated for: spectre
// Generated on: May 27 19:46:18 2026
// Design library name: sebastian_thesis_pilot
// Design cell name: synapsedualinputtb
// Design view name: schematic
simulator lang=spectre
include "ade_e.scs"
global 0
